  12

  N            -1.154923            -0.042562             0.002571
  N             0.950627            -0.704042             0.014630
  C            -0.357175            -1.097364             0.010318
  C            -0.781045            -2.526644             0.013949
  C            -0.326642             1.065707             0.001906
  C             0.985526             0.676087             0.009308
  H            -0.405830            -3.056151            -0.866388
  H            -0.411436            -3.049999             0.900303
  H            -1.869208            -2.576545             0.010641
  H            -0.722976             2.069003            -0.003824
  H             1.910698             1.226841             0.011327
  H             1.753669            -1.315045             0.020713
