  10

  C            -0.349040             0.758950             0.250830
  C            -1.176839            -0.193163            -0.341970
  C            -0.311285            -1.240927            -0.789824
  H            -2.254097            -0.151654            -0.443695
  C             0.967331            -0.815122            -0.420278
  N             0.977424             0.374027             0.201560
  H            -0.630842             1.698875             0.709781
  O             2.182827            -1.469075            -0.620599
  H            -0.579563            -2.157235            -1.299316
  H             2.001074            -2.297156            -1.076540
