  18

  N            -0.065050             0.102237            -0.041010
  C             1.151528            -0.438085             0.120435
  C            -0.556933             0.285319            -1.341295
  C             0.307709            -0.122606            -2.290446
  S             1.744512            -0.742379            -1.483776
  C            -0.907870             0.453207             1.119293
  C            -1.998265            -0.583535             1.364747
  H            -2.591097            -0.295941             2.235976
  H            -2.671224            -0.665311             0.508105
  H            -1.557075            -1.564670             1.554171
  H            -1.336990             1.440315             0.934763
  H            -0.236905             0.526305             1.972825
  H            -1.531518             0.720408            -1.494244
  C             0.147014            -0.075773            -3.775067
  O            -1.130273             0.485457            -4.074764
  H             0.232612            -1.088429            -4.187424
  H             0.949570             0.528970            -4.214443
  H            -1.230739             0.509501            -5.032461
