  11

  N            -1.167558            -0.028531            -0.184446
  N             0.967552            -0.703520             0.220250
  C            -0.321862            -1.060764             0.029296
  C            -0.771321            -2.492803             0.012741
  C            -0.353417             1.080932            -0.128733
  C             0.946876             0.670065             0.118129
  H            -0.787353            -2.905431            -1.003990
  H            -0.098431            -3.115695             0.606637
  H            -1.782014            -2.591511             0.417498
  H            -0.743411             2.082789            -0.257366
  H             1.844039             1.265130             0.233534
