  15

  N            -1.530003            -1.069876             0.168972
  N            -2.370415            -0.003578             0.230671
  C            -0.220919            -0.693155             0.074782
  C            -0.226662             0.724680             0.076488
  C             0.966412            -1.434717            -0.011978
  C             0.989479             1.426059            -0.010965
  C            -1.607226             1.074167             0.176541
  C             2.147066            -0.717615            -0.096961
  C             2.162205             0.697830            -0.096717
  H             0.959288            -2.517558            -0.012440
  H             1.004430             2.509504            -0.011029
  H            -2.053549             2.056706             0.209629
  H             3.086896            -1.252805            -0.165660
  H             3.112739             1.213090            -0.165166
  H            -1.910099            -2.002608             0.196188
