   8

  C            -2.261894             3.428023             0.322195
  N            -1.230068             2.600989             0.053058
  C            -1.845154             1.491830            -0.479538
  C            -3.216427             1.704661            -0.504969
  H            -1.280668             0.627423            -0.804961
  N            -3.485285             2.951138             0.011040
  H            -4.004156             1.050132            -0.855418
  H            -2.117531             4.409807             0.759056
