  14

  O             2.161894            -0.692102            -0.563269
  C             3.131199             0.226731            -0.041378
  C             4.513005            -0.277729            -0.426673
  H             3.052770             0.290971             1.049306
  H             2.969190             1.228002            -0.458679
  N             5.537536             0.646139             0.078308
  H             4.545623            -0.417760            -1.516169
  H             4.672745            -1.255106             0.034545
  H             5.543719             1.500566            -0.471315
  H             6.459198             0.234553            -0.023138
  H             1.285148            -0.310056            -0.452903
  C             2.053691            -3.044571             0.963218
  O             1.203080            -3.469971             0.297644
  O             2.901764            -2.660104             1.656595
