  13

  O             2.356735            -0.003057             0.045367
  C             1.278444             0.904447             0.296032
  C            -0.000058             0.267547            -0.283482
  O            -0.000352            -1.092072            -0.024859
  C            -1.279175             0.904664             0.294416
  O            -2.357297            -0.002697             0.042362
  H             1.855436            -0.851682             0.018500
  H             1.162967             1.050872             1.380964
  H             1.514016             1.869435            -0.164266
  H             0.000652             0.468134            -1.380220
  H            -1.165043             1.051073             1.379509
  H            -1.514003             1.869696            -0.166197
  H            -1.856054            -0.851385             0.016164
