   8

  C            -2.117639             3.299120             0.379242
  N            -1.189837             2.360864             0.273960
  C            -1.885910             1.360302            -0.389214
  C            -3.179062             1.792291            -0.623912
  H            -1.415337             0.420806            -0.644622
  N            -3.325604             3.074271            -0.113416
  H            -3.998352             1.283413            -1.112892
  F            -1.831338             4.487584             0.990643
