  19

  C            -0.714316             0.820791             0.002598
  C            -1.359389            -0.288653            -0.481727
  C            -0.354690            -1.259686            -0.779276
  H            -2.426302            -0.396806            -0.607056
  C             0.876471            -0.714522            -0.482227
  N             0.649478             0.576379            -0.000801
  H            -1.084661             1.769871             0.347327
  C             2.213399            -1.381364            -0.605385
  H            -0.510066            -2.260955            -1.154367
  H             2.056219            -2.459445            -0.500850
  H             2.873396            -1.070523             0.206422
  C             2.924131            -1.162417            -1.949327
  H             2.299122            -1.556694            -2.758066
  H             3.860101            -1.738264            -1.942828
  O             3.197682             0.205300            -2.236553
  H             3.128092             0.700581            -1.388463
  C             1.618870             1.573024             0.475829
  O             1.141602             2.491422             1.157508
  O             2.811791             1.384773             0.132627
