  10

  O             2.144510            -0.752025             0.231630
  C             3.193824             0.232632             0.060123
  C             4.535260            -0.460904            -0.207959
  H             3.275828             0.847729             0.966809
  H             2.953261             0.895001            -0.780641
  N             5.651932             0.446241            -0.406867
  H             4.397415            -1.073486            -1.113699
  H             4.667095            -1.194114             0.619801
  H             1.310354            -0.288454             0.359271
  H             5.829911             0.892745             0.497474
