  18

  C             1.097476            -0.294950             0.338535
  N             0.653169            -1.597782            -0.155872
  C             0.972105            -2.783628             0.441133
  N             0.398466            -3.699683            -0.393198
  C             0.447311            -5.139118            -0.175663
  C            -0.250544            -3.106896            -1.469496
  C            -0.085372            -1.769681            -1.320238
  C             2.260536             0.270045            -0.472461
  H             1.385776            -0.441421             1.378896
  H             0.245186             0.388837             0.318533
  H             1.038028            -5.325575             0.718228
  H             0.913353            -5.637641            -1.027828
  H            -0.558567            -5.539807            -0.034272
  H            -0.767062            -3.672952            -2.226334
  H            -0.426377            -0.947044            -1.925951
  H             3.117418            -0.406768            -0.436036
  H             2.565241             1.237361            -0.065604
  H             1.979208             0.414670            -1.518366
