  12

  C            -2.170637             3.444659             0.045544
  N            -1.226218             2.465460            -0.186632
  C            -1.940466             1.303090            -0.489492
  C            -3.253579             1.654291            -0.420813
  H            -1.436108             0.380784            -0.714401
  N            -3.396560             3.002510            -0.083868
  H            -4.117434             1.030803            -0.590496
  O            -1.812239             4.686885             0.363319
  H            -0.805739             4.649958             0.367861
  C             0.221590             2.641800            -0.120312
  O             0.908994             1.647071            -0.357748
  O             0.571791             3.818619             0.178615
