  14

  C            -1.811852            -0.957867            -0.000000
  C            -1.774494            -2.374278             0.000000
  C            -0.658876            -0.192503            -0.000000
  C             0.551115            -0.898340            -0.000000
  C             0.602242            -2.305902            -0.000000
  C            -0.577580            -3.066222            -0.000000
  N             1.865151            -0.536822             0.000000
  N             2.665340            -1.626958             0.000000
  N             1.926627            -2.690884             0.000000
  H            -0.690908             0.889092            -0.000000
  H            -2.774632            -0.461160             0.000000
  H            -2.709425            -2.921051             0.000000
  H            -0.542474            -4.148313            -0.000000
  H             2.279348             0.384227            -0.000000
