  17

  N            -1.620061            -0.349917            -0.068695
  N             0.563431            -0.384327             0.359610
  C            -0.607935            -1.114005             0.313110
  C            -0.743123            -2.578187             0.584731
  C            -1.094719             0.914454            -0.274541
  C             0.245169             0.911652            -0.016984
  H            -1.713878             1.740450            -0.590302
  H             0.999520             1.676547            -0.050557
  C            -0.256702            -3.451004            -0.583354
  H            -1.804998            -2.762499             0.764415
  H            -0.189408            -2.840391             1.485763
  H            -0.809410            -3.219677            -1.498037
  H            -0.403660            -4.510409            -0.355799
  H             0.806025            -3.285591            -0.765868
  C             1.938907            -0.804431             0.766852
  O             2.040801            -1.974251             1.164309
  O             2.789491             0.093816             0.649309
