  16

  C            -0.404486             0.805663             0.026081
  C            -1.310838            -0.226007            -0.230911
  C            -0.520380            -1.359684            -0.576400
  H            -2.390787            -0.171421            -0.177687
  C             0.812250            -0.942457            -0.500267
  N             0.887313             0.377338            -0.131109
  H            -0.618810             1.827642             0.316262
  C             2.073452            -1.712387            -0.784935
  H            -0.872103            -2.347234            -0.847970
  H             1.826947            -2.669141            -1.257668
  H             2.613420            -1.946968             0.143820
  C             3.025933            -0.933779            -1.698951
  H             2.538497            -0.767482            -2.671232
  H             3.944672            -1.500857            -1.878299
  O             3.404794             0.318189            -1.120075
  H             2.570877             0.659983            -0.706120
