  18

  C            -0.547727             0.443199            -0.437865
  C            -1.450549            -0.358150             0.223919
  C            -0.701266            -1.358611             0.909272
  H            -2.523065            -0.238499             0.227900
  C             0.632137            -1.137447             0.626993
  N             0.721849            -0.034597            -0.203862
  H            -0.681336             1.332547            -1.028633
  C             1.764166            -1.992403             1.061140
  H            -1.085980            -2.167474             1.511407
  O             2.046096            -2.154624             2.232147
  O             2.416628            -2.732776             0.143963
  C             2.074019            -2.651025            -1.254084
  H             2.494122            -3.545744            -1.707829
  H             2.523844            -1.761538            -1.691539
  H             0.992366            -2.637523            -1.388673
  C             1.973898             0.657901            -0.602629
  O             1.812880             1.613427            -1.376498
  O             2.999663             0.170748            -0.097069
