  13

  C            -2.113516             3.388427             0.434654
  N            -1.718662             2.180053             0.840953
  C            -2.139569             1.306804            -0.113674
  C            -2.800025             1.984672            -1.119995
  H            -1.954172             0.245951            -0.040446
  N            -2.786144             3.304131            -0.776083
  H            -3.270121             1.655206            -2.029540
  C            -1.848045             4.624563             1.170052
  H            -2.218652             5.538181             0.691344
  O            -1.256203             4.650960             2.240872
  C            -3.435867             4.388168            -1.636154
  O            -3.916024             3.942598            -2.681707
  O            -3.381831             5.524289            -1.155769
