  10

  C            -2.863352            -1.707056             0.000000
  C            -1.436332            -1.705046            -0.000000
  C            -3.276713            -0.390624            -0.000000
  C            -1.026681            -0.387456            -0.000000
  N            -2.152804             0.398858            -0.000000
  H            -4.262829             0.043963             0.000000
  H            -3.509886            -2.571024            -0.000000
  H            -0.787362            -2.567187             0.000000
  H            -0.041793             0.049905             0.000000
  H            -2.154213             1.406537             0.000000
