  17

  N            -0.066866             0.224204            -0.003114
  C             1.056118            -0.491540             0.058377
  C            -0.412556             0.629051            -1.282157
  C             0.474060             0.220099            -2.218810
  S             1.750712            -0.688814            -1.491268
  C            -0.950304             0.538341             1.153243
  C            -1.983324            -0.560717             1.362482
  H            -2.631006            -0.283910             2.196673
  H            -2.605087            -0.698861             0.475506
  H            -1.492308            -1.503865             1.605585
  H            -1.417484             1.493759             0.919416
  H            -0.308163             0.643521             2.020623
  H            -1.309137             1.210310            -1.428569
  H             0.443770             0.405725            -3.279812
  C             1.757855            -1.114596             1.285278
  O             1.241519            -0.897927             2.394576
  O             2.775485            -1.761739             0.968121
