   7

  C            -1.713640             1.399285            -0.000000
  N            -1.777412             0.046664            -0.000000
  C            -0.461560            -0.272861             0.000000
  N             0.355398             0.782147             0.000000
  N            -0.471424             1.886011            -0.000000
  H            -0.095781            -1.291742             0.000000
  H            -2.588050             2.037486             0.000000
