  13

  C            -1.789949            -0.955978            -0.000000
  C            -1.781982            -2.376141            -0.000000
  C            -0.613305            -0.227222             0.000000
  C             0.599393            -0.943597             0.000000
  C             0.607395            -2.361868             0.000000
  C            -0.597266            -3.091721             0.000000
  N             1.900045            -0.530947            -0.000000
  N             2.646968            -1.641165            -0.000000
  N             1.912669            -2.759797            -0.000000
  H            -0.623855             0.857390             0.000000
  H            -2.742508            -0.437571            -0.000000
  H            -2.728682            -2.905174            -0.000000
  H            -0.595813            -4.176381             0.000000
