  23

  N            -0.116137             0.061757             0.052980
  C             1.213147            -0.000925             0.126830
  C            -0.632795             0.075883            -1.247767
  C             0.352684             0.025956            -2.190146
  S             1.912775            -0.045633            -1.426785
  C            -1.005714             0.042211             1.243878
  C            -1.357839            -1.386185             1.641942
  H            -2.030986            -1.359706             2.501104
  H            -1.856265            -1.923750             0.833064
  H            -0.457955            -1.933191             1.926603
  H            -1.889120             0.620831             0.984991
  H            -0.465673             0.540692             2.041061
  C             0.220539             0.056425            -3.679563
  H             1.057788            -0.452466            -4.158278
  H             0.197833             1.086116            -4.046315
  C            -2.101965             0.169934            -1.493779
  H            -2.299871             0.091648            -2.560877
  H            -2.499871             1.128857            -1.151466
  H            -2.650890            -0.626833            -0.988711
  H            -0.698422            -0.437404            -3.996034
  C             2.139739            -0.031999             1.361056
  O             1.608395             0.097461             2.477981
  O             3.338301            -0.179810             1.045628
