  14

  N            -1.530458            -1.112316             0.184158
  N            -2.333374            -0.009854             0.240747
  C            -0.248635            -0.668663             0.085748
  C            -0.219392             0.765740             0.079075
  C             0.954696            -1.403975            -0.002780
  C             1.010923             1.449384            -0.015719
  C            -1.588200             1.106508             0.181169
  C             2.147129            -0.709868            -0.095287
  C             2.178225             0.711052            -0.101928
  H             0.938988            -2.489359             0.001840
  H             1.046400             2.534629            -0.021493
  H            -2.049636             2.084803             0.212587
  H             3.082138            -1.256089            -0.164357
  H             3.134633             1.217486            -0.175568
