   8

  C            -3.658778             0.604195             0.000000
  C            -3.736926            -0.797771            -0.000000
  N            -2.370494             0.956689             0.000000
  N            -1.731898            -0.206357            -0.000000
  N            -2.495764            -1.291266            -0.000000
  H            -4.442256             1.343869            -0.000000
  H            -4.597766            -1.445750             0.000000
  H            -0.723315            -0.262386             0.000000
