  17

  C            -2.133432             3.757801            -0.140288
  N            -3.079950             2.862123            -0.358879
  C            -2.756456             2.282661            -1.570033
  C            -1.610892             2.845366            -2.071061
  H            -3.365683             1.505125            -2.004035
  N            -1.211478             3.789212            -1.149421
  H            -1.062154             2.695766            -2.984035
  C            -2.058250             4.572603             1.104232
  O            -2.918974             5.347934             1.459309
  O            -0.969751             4.273856             1.820337
  C            -0.757347             5.052082             3.017196
  H             0.166067             4.673918             3.447266
  H            -0.656660             6.106592             2.759442
  H            -1.587505             4.916830             3.710208
  C            -0.104933             4.792546            -1.343053
  O             0.687325             4.492210            -2.243995
  O            -0.178073             5.763515            -0.578900
