  15

  N             1.947243            -0.829309             0.057547
  C             3.003188             0.126014             0.410904
  C             4.428970            -0.343160             0.108681
  H             2.915910             0.348628             1.480063
  H             2.813735             1.061985            -0.121822
  N             5.403786             0.687479             0.492766
  H             4.527555            -0.515955            -0.967468
  H             4.598008            -1.308148             0.610204
  H             6.345428             0.386710             0.260531
  H             2.088086            -1.708123             0.547934
  H             1.986921            -1.044743            -0.934796
  H             5.389710             0.827606             1.499400
  C             5.024350             2.888747            -1.192285
  O             4.769665             2.170974            -2.069824
  O             5.265924             3.680492            -0.377220
