  14

  C            -0.386273             0.725650             0.217770
  C            -1.143244            -0.301980            -0.326188
  C            -0.250370            -1.337872            -0.655851
  H            -2.213425            -0.292125            -0.463801
  C             1.036645            -0.924399            -0.308956
  N             0.927159             0.364123             0.234116
  H            -0.676073             1.692461             0.591901
  C             2.253123            -1.695486            -0.438634
  H            -0.487386            -2.296531            -1.090689
  O             2.282110            -2.823300            -0.936172
  H             3.166363            -1.219152            -0.063904
  C             2.003833             1.285375             0.741212
  O             1.565693             2.328590             1.246295
  O             3.162982             0.877358             0.580081
