  21

  C             1.190012            -0.258946             0.292706
  N             0.719236            -1.580744            -0.166266
  C             1.100291            -2.787410             0.298543
  N             0.430708            -3.715286            -0.414812
  C             0.566243            -5.172829            -0.305630
  C            -0.369324            -3.087329            -1.348758
  C            -0.195171            -1.749938            -1.186909
  C             2.304917             0.275593            -0.596687
  H             1.529787            -0.372821             1.317479
  H             0.319477             0.397269             0.281694
  H             0.927463            -5.408424             0.689768
  H             1.267875            -5.529219            -1.059955
  H            -0.411855            -5.619760            -0.471778
  H            -0.985442            -3.642157            -2.034062
  H            -0.645290            -0.913506            -1.691815
  H             3.164735            -0.393887            -0.561997
  H             2.612852             1.259612            -0.236584
  H             1.970484             0.379550            -1.631320
  C             2.100538            -3.043011             1.436637
  O             1.830133            -4.016323             2.168067
  O             3.049914            -2.237929             1.482266
