  12

  C            -0.353255             0.511068            -0.215337
  C            -1.036942            -0.686028            -0.454351
  C            -0.035443            -1.698098            -0.463855
  H            -2.102823            -0.812700            -0.599688
  C             1.182496            -1.043844            -0.229955
  H            -0.177110            -2.761302            -0.617736
  N             0.994439             0.301344            -0.078718
  H            -0.769666             1.509746            -0.136832
  C             2.551631            -1.658013            -0.143923
  H             2.498775            -2.743239            -0.270406
  H             3.031055            -1.461864             0.823195
  H             3.228283            -1.269658            -0.915686
