   9

  N             0.664287            -0.745098             0.556408
  N            -0.680649            -0.626644             0.574059
  C             1.087612             0.365188            -0.049286
  C             0.009746             1.198427            -0.421117
  C            -1.118317             0.519898             0.000458
  H             2.144933             0.526873            -0.196415
  H             0.048332             2.151509            -0.921844
  H            -2.167642             0.757682            -0.061475
  H            -1.239428            -1.356328             0.989184
