  12

  C            -2.861706            -1.700589            -0.000000
  C            -1.431006            -1.654668            -0.000000
  C            -3.310683            -0.399284             0.000000
  C            -1.066095            -0.327279             0.000000
  N            -2.214115             0.438137             0.000000
  H            -4.303971             0.014410             0.000000
  H            -3.482275            -2.584351            -0.000000
  H            -0.755179            -2.496931            -0.000000
  H            -0.101019             0.148745            -0.000000
  C            -2.262137             1.913695            -0.000000
  O            -1.149189             2.471834             0.000000
  O            -3.409263             2.397855            -0.000000
