  10

  C            -1.448275            -0.804200            -0.035683
  C            -0.442277             0.185303             0.032779
  C            -2.316745             1.263019             0.103924
  N            -0.980286             1.452434             0.118182
  C            -2.661876            -0.102393             0.011182
  H            -3.658585            -0.521147            -0.017636
  H            -2.992560             2.108276             0.160665
  H            -1.297749            -1.872052            -0.107969
  C             0.949728            -0.023813             0.019017
  N             2.099134            -0.210246             0.006479
