  13

  O             2.245279            -0.587899             0.735881
  C             3.151722             0.243294             0.002857
  C             4.557865            -0.216031             0.340780
  H             3.028306             1.294880             0.281316
  H             2.981496             0.144532            -1.075089
  O             5.459647             0.577920            -0.436018
  H             4.662821            -1.278597             0.097774
  H             4.741893            -0.082535             1.412800
  H             6.358308             0.285617            -0.253390
  H             1.369918            -0.188710             0.708088
  C             1.930789            -3.093230            -0.480303
  O             1.054526            -3.361427             0.232132
  O             2.801428            -2.867060            -1.214241
