  19

  N            -0.096013             0.118397            -0.054751
  C             1.111473            -0.409969             0.014822
  C            -0.560974             0.286528            -1.349842
  C             0.327707            -0.126013            -2.285492
  S             1.767773            -0.738420            -1.515131
  C            -0.913442             0.453924             1.139271
  C            -2.004614            -0.582294             1.373294
  H            -2.570459            -0.300205             2.262842
  H            -2.696772            -0.631304             0.530998
  H            -1.573929            -1.571829             1.535655
  H            -1.325505             1.447420             0.965247
  H            -0.225740             0.512308             1.980810
  H            -1.533664             0.714075            -1.524771
  H             1.620609            -0.610206             0.944214
  C             0.167263            -0.083556            -3.773355
  O            -1.126581             0.435784            -4.040050
  H             0.285268            -1.093104            -4.183449
  H             0.949588             0.549991            -4.206624
  H            -1.234687             0.510664            -4.994337
