  10

  O             2.073990            -0.749391             0.068411
  C             3.057397             0.205002             0.054220
  C             4.489211            -0.362018            -0.048445
  H             3.057794             0.861263             0.959726
  H             2.963247             0.925868            -0.801905
  N             5.500529             0.713465            -0.100805
  H             4.529397            -1.028773            -0.924382
  H             4.690792            -0.977559             0.835406
  H             5.363620             1.265210            -0.943817
  H             6.434987             0.321474            -0.170443
