  15

  C            -0.450095             0.502225            -0.093682
  C            -1.108405            -0.672838            -0.475222
  C            -0.103914            -1.680802            -0.489441
  H            -2.160699            -0.787789            -0.705167
  C             1.091186            -1.047809            -0.115972
  H            -0.227910            -2.728851            -0.735692
  N             0.883976             0.282043             0.126650
  H            -0.878513             1.490123             0.039222
  C             2.458151            -1.665355            -0.004913
  H             2.354473            -2.756342             0.006975
  H             2.915876            -1.389090             0.954145
  C             3.420638            -1.267387            -1.136849
  H             3.018497            -1.567493            -2.109604
  H             4.402214            -1.738369            -1.014469
  H             3.565086            -0.183957            -1.156320
