  16

  O             2.536369             0.336876            -0.144640
  C             1.293005             0.886440             0.285254
  C             0.112449             0.118247            -0.299508
  O             0.370921            -1.257391             0.052061
  C            -1.214752             0.633972             0.251721
  O            -2.336071             0.276373            -0.548399
  H             2.449272            -0.620915            -0.039000
  H             1.230359             0.879114             1.381523
  H             1.265324             1.922672            -0.054620
  H             0.118538             0.210734            -1.389804
  H            -1.330209             0.259136             1.277932
  H            -1.181848             1.727302             0.297466
  H            -2.104125            -0.591736            -0.949362
  C            -0.262210            -2.298758            -0.666113
  O            -1.195510            -1.971866            -1.439663
  O             0.200740            -3.418161            -0.414766
