   8

  C            -1.648665             1.403565            -0.000000
  N            -1.737895             0.042421            -0.000000
  C            -0.469582            -0.341271             0.000000
  N             0.329090             0.739737             0.000000
  N            -0.412460             1.875251             0.000000
  H            -0.098683            -1.353844            -0.000000
  H            -2.507959             2.056051            -0.000000
  H             1.338100             0.783501            -0.000000
