  16

  C            -0.428526             0.875635             0.046235
  C            -1.236567            -0.192037            -0.256087
  C            -0.380286            -1.266495            -0.647233
  H            -2.315066            -0.203080            -0.209786
  C             0.923088            -0.825016            -0.573493
  N             0.890164             0.502362            -0.142442
  H            -0.658002             1.877295             0.364519
  C             2.168030            -1.615541            -0.819298
  H            -0.678728            -2.262648            -0.939951
  H             1.870155            -2.634897            -1.069897
  H             2.778417            -1.658343             0.091707
  O             2.966398            -1.130660            -1.904641
  H             3.223396            -0.237846            -1.592372
  C             2.012073             1.435515             0.046499
  O             1.722318             2.503124             0.606262
  O             3.122924             1.045094            -0.385035
