  15

  C            -0.501595             0.728825            -0.064625
  C            -1.334405            -0.396772            -0.278438
  C            -0.468101            -1.464595            -0.525773
  H            -2.415746            -0.420243            -0.251639
  C             0.844550            -0.933593            -0.439196
  N             0.803239             0.418562            -0.154124
  H            -0.815369             1.744737             0.149084
  C             2.037745            -1.712133            -0.685837
  H            -0.728305            -2.491192            -0.738968
  O             2.018020            -2.854861            -1.147892
  O             3.290710            -1.217045            -0.437694
  C             3.547747            -0.066690             0.387016
  H             4.613239            -0.115401             0.612855
  H             2.966082            -0.110228             1.307310
  H             3.307109             0.854219            -0.138442
