  24

  C            -3.354028             0.893005             0.442554
  C            -2.037012             1.662596             0.408402
  C            -0.840564             0.781918             0.043466
  H            -1.864471             2.122998             1.389627
  H            -2.121583             2.484651            -0.310956
  N            -4.475756             1.785148             0.776972
  H            -3.259673             0.049178             1.142123
  H            -3.552561             0.468029            -0.546162
  H            -5.345114             1.260607             0.807075
  C             0.480082             1.553334             0.003641
  H            -1.019961             0.315935            -0.933247
  H            -0.758665            -0.039005             0.766449
  C             1.672914             0.673563            -0.359678
  N             2.920576             1.455724            -0.379677
  H             1.470116             0.173137            -1.318824
  H             1.784985            -0.115069             0.391311
  H             0.666889             2.021096             0.976839
  H             0.401477             2.369657            -0.725926
  H             2.880861             2.146540            -1.124513
  H             3.707942             0.851999            -0.596941
  H            -4.345646             2.173714             1.707315
  C            -4.714512             3.563586            -1.359340
  O            -4.519660             2.694625            -2.105849
  O            -4.916975             4.494912            -0.694681
