  18

  C            -3.636826             0.835389             0.244056
  C            -2.484760             1.649429            -0.338124
  C            -1.196964             0.840523            -0.462085
  H            -2.298248             2.523437             0.296429
  H            -2.778653             2.028860            -1.323787
  N            -4.857508             1.652368             0.342243
  H            -3.326700             0.416783             1.213493
  H            -3.854709            -0.012752            -0.412473
  H            -4.715870             2.403171             1.012861
  H            -5.623822             1.092173             0.703368
  N            -0.109946             1.671635            -1.002428
  H            -1.390052            -0.054591            -1.071754
  H            -0.886007             0.492955             0.527671
  H             0.737950             1.120651            -1.098958
  H            -0.348085             1.993137            -1.936895
  C             0.501568             3.581908             0.922374
  O             0.284479             2.811025             1.764396
  O             0.741669             4.421518             0.155938
