  17

  N            -1.564350            -1.102353             0.051949
  N            -2.380446            -0.012221             0.165827
  C            -0.238701            -0.716640            -0.008201
  C            -0.230892             0.698876             0.073280
  C             0.958949            -1.440995            -0.125956
  C             0.980034             1.410243             0.037775
  C            -1.609103             1.054500             0.179959
  C             2.140175            -0.716590            -0.158943
  C             2.158355             0.694148            -0.078393
  H             0.942269            -2.517947            -0.187242
  H             0.986811             2.492377             0.099848
  H            -2.044948             2.039753             0.264680
  H             3.080246            -1.249187            -0.249419
  H             3.108152             1.215050            -0.108507
  C            -2.121560            -2.479901             0.002808
  O            -1.248860            -3.362388            -0.091435
  O            -3.356112            -2.558922             0.061040
