  11

  C            -0.335738             0.695308             0.146236
  C            -1.181648            -0.331139            -0.358261
  C            -0.342039            -1.400978            -0.662541
  H            -2.255950            -0.282588            -0.478286
  C             0.971067            -0.973982            -0.328540
  N             0.949950             0.322087             0.168178
  H            -0.638900             1.679428             0.486530
  C             2.205320            -1.673212            -0.437194
  H            -0.618501            -2.363177            -1.069912
  O             2.382008            -2.830217            -0.856606
  H             3.080330            -1.081103            -0.098514
