  20

  C            -3.452796             0.820428             0.104991
  C            -2.143226             1.612879             0.027298
  C            -0.887433             0.745017            -0.088019
  H            -2.066546             2.247923             0.919900
  H            -2.195976             2.296098            -0.831132
  N            -4.605399             1.701098             0.215575
  H            -3.334833             0.113216             0.959600
  H            -3.466762             0.156716            -0.792285
  H            -5.433268             1.104973             0.290918
  C             0.412526             1.552033            -0.128061
  H            -0.954986             0.124029            -0.990564
  H            -0.849026             0.048257             0.759563
  C             1.658562             0.677790            -0.236121
  N             2.883834             1.496328            -0.256144
  H             1.566885             0.031468            -1.122494
  H             1.714231             0.015151             0.633799
  H             0.492206             2.172494             0.772110
  H             0.385771             2.243163            -0.980948
  H             2.893398             2.077407            -1.090401
  H             3.702757             0.898689            -0.319885
