  11

  C            -1.428684            -0.777387            -0.027834
  C            -0.400434             0.158010             0.018950
  C            -2.331918             1.287572             0.085277
  N            -0.977103             1.412447             0.087722
  C            -2.644964            -0.060565             0.014343
  H            -3.639333            -0.476630            -0.004720
  H            -2.967359             2.156436             0.133627
  H            -1.296006            -1.845723            -0.085327
  C             0.992965            -0.035244             0.004635
  N             2.139308            -0.205076            -0.007926
  H            -0.470100             2.283660             0.131491
