   9

  C            -0.417521             0.746036             0.186401
  C            -1.271912            -0.219148            -0.349903
  C            -0.440415            -1.316097            -0.736319
  H            -2.347338            -0.153926            -0.454196
  C             0.833780            -0.887313            -0.387437
  N             0.897566             0.324038             0.161091
  H            -0.672267             1.718152             0.589134
  F             1.998845            -1.608308            -0.565463
  H            -0.724728            -2.253857            -1.190547
