  13

  C            -1.817657             3.792757            -0.210380
  N            -1.807066             2.424819            -0.172475
  C            -2.166202             2.062839            -1.421462
  C            -2.388084             3.220258            -2.188580
  H            -2.252846             1.025439            -1.718228
  N            -2.168490             4.309803            -1.424018
  H            -2.688023             3.296845            -3.226127
  C            -1.475158             4.611320             0.940009
  O            -1.491359             5.849172             0.916496
  C            -1.058252             3.902671             2.216304
  H            -1.288394             2.840207             2.195614
  H             0.022499             4.025164             2.344217
  H            -1.545558             4.384037             3.067210
