   9

  C            -2.854639            -1.740671            -0.000000
  C            -1.433764            -1.752793             0.000000
  C            -3.220658            -0.387722            -0.000000
  C            -1.044799            -0.406283             0.000000
  N            -2.125679             0.431487            -0.000000
  H            -4.222843             0.027279             0.000000
  H            -3.518523            -2.596251            -0.000000
  H            -0.784478            -2.619488             0.000000
  H            -0.035719            -0.008347            -0.000000
